Version 4
SHEET 1 880 680
WIRE 272 80 80 80
WIRE -112 128 -208 128
WIRE 16 128 -32 128
WIRE 272 128 272 80
WIRE -208 304 -208 208
WIRE 80 304 80 176
WIRE 80 304 -208 304
WIRE 272 304 272 208
WIRE 272 304 80 304
FLAG 80 304 0
SYMBOL npn 16 80 R0
SYMATTR InstName Q1
SYMATTR Value BC547B
SYMBOL voltage -208 112 R0
SYMATTR InstName Vbe
SYMBOL voltage 272 112 R0
SYMATTR InstName Vce
SYMBOL res -16 112 R90
WINDOW 0 0 56 VBottom 2
WINDOW 3 32 56 VTop 2
SYMATTR InstName R1
SYMATTR Value 10k
TEXT -168 376 Left 2 !.dc Vce 0 20 2 Vbe 500m 4000m 500m
