Version 4
SHEET 1 880 680
WIRE 192 160 16 160
WIRE 400 160 256 160
WIRE 16 256 16 160
WIRE 400 256 400 160
WIRE 16 432 16 336
WIRE 224 432 16 432
WIRE 400 432 400 336
WIRE 400 432 224 432
FLAG 224 432 0
SYMBOL diode 192 176 R270
WINDOW 0 32 32 VTop 2
WINDOW 3 0 32 VBottom 2
SYMATTR InstName D1
SYMATTR Value 1N4148
SYMBOL res 384 240 R0
SYMATTR InstName R1
SYMATTR Value 200
SYMBOL voltage 16 240 R0
WINDOW 123 0 0 Left 0
WINDOW 39 0 0 Left 0
SYMATTR InstName V1
SYMATTR Value SINE(0 2 1k)
TEXT 128 552 Left 2 !.tran 0 10m 0 0.1
