Version 4
SHEET 1 1716 680
WIRE 160 -96 -48 -96
WIRE 288 -96 224 -96
WIRE 432 -96 288 -96
WIRE -48 -48 -48 -96
WIRE 224 -48 160 -48
WIRE 432 -16 432 -96
WIRE 160 48 160 -48
WIRE 288 48 288 -96
WIRE 288 48 240 48
WIRE 256 64 240 64
WIRE -48 160 -48 32
WIRE 224 160 -48 160
WIRE 432 160 432 64
WIRE 432 160 224 160
WIRE 224 192 224 160
FLAG 224 192 0
SYMBOL Misc\\SCR 160 -80 R270
WINDOW 3 83 -26 VRight 2
SYMATTR Value TN5015H-6T
SYMATTR InstName U1
SYMBOL voltage 144 48 R270
WINDOW 3 -61 -102 VRight 2
WINDOW 123 0 0 Left 0
WINDOW 39 0 0 Left 0
SYMATTR Value PULSE(0 2 {D} 1n 1n 10m 20m)
SYMATTR InstName V1
SYMBOL voltage -48 -64 R0
WINDOW 3 -283 43 Left 2
WINDOW 123 0 0 Left 0
WINDOW 39 0 0 Left 0
SYMATTR Value SINE(0 325 50 0 0 0)
SYMATTR InstName V2
SYMBOL res 416 -32 R0
SYMATTR InstName R1
SYMATTR Value 10k
TEXT -608 -336 Left 2 !.tran 0 60m 0 0.1m
TEXT -584 -272 Left 2 !.inc C:\\Users\\Enes\\Documents\\LTspiceXVII\\lib\\st_high-temperature_scr.lib
TEXT -592 -304 Left 2 !.param D=6m
